<NUMBER OF ZONES> 25
<TOTAL OD FLOW> 6000
<END OF METADATA>


Origin  7
	7 :	0;	9 :	500;	17 :	500;	19 :	500;


Origin  9
	7 :	500;	9 :	0;	17 :	500;	19 :	500;


Origin  17
	7 :	500;	9 :	500;	17 :	0;	19 :	500;


Origin  19
	7 :	500;	9 :	500;	17 :	500;	19 :	0;


